6
-106339.68912556485
C -0.2460 0.5831 -0.0002 9.03523416 17.76539945 0.19090101
O -1.3932 0.1888 -0.0004 -38.67452483 11.90106265 -0.68418474
H 1.7225 -0.2594 0.0001 -2.06283292 -3.08314710 0.53990132
H 0.1262 -1.1803 0.0006 27.83337979 -28.09768224 -0.09365988
H 0.0711 1.6400 0.0004 1.86518013 8.15680089 -0.35907301
N 0.7175 -0.3532 -0.0005 2.00366269 -6.64247846 0.40616606
6
-106345.18184987725
C -0.2511 0.5880 -0.0000 12.39146533 -7.43073468 -1.00986721
O -1.4390 0.3879 0.0000 -40.23227518 -1.61424967 -0.74414288
H 1.6669 -0.1837 0.0002 -29.67699705 -23.36452696 -0.39930585
H 0.1800 -1.3321 0.0001 21.42692618 -5.62893928 -0.17163395
H 0.1886 1.5873 -0.0000 11.63467169 17.92134179 1.03998534
N 0.6528 -0.4284 -0.0002 25.44022199 20.22159384 -1.50626555
6
-106345.42183911486
C -0.2609 0.5824 -0.0001 2.22078910 2.72634392 3.86872298
O -1.4312 0.2762 -0.0001 -38.49010689 9.95560031 -2.80178156
H 1.6653 -0.1992 0.0003 9.26331117 -4.57206944 0.37602743
H 0.2219 -1.2752 0.0000 13.01406038 -17.74426439 0.16658676
H 0.1258 1.6113 0.0000 3.98288493 13.23585218 -0.38115906
N 0.6772 -0.3766 -0.0001 10.00898101 -3.60156022 -1.22848382
6
-106340.50063971555
C -0.2316 0.5879 -0.0001 -8.36649506 11.56386514 -1.58226894
O -1.3835 0.1992 -0.0002 -40.16272477 14.46421641 2.02302937
H 1.7208 -0.2658 0.0001 1.84446455 -3.15643825 0.24694167
H 0.1276 -1.1883 0.0003 25.55895598 -26.12965902 0.22535361
H 0.0472 1.6474 0.0002 8.84807133 11.14499720 0.24801498
N 0.7175 -0.3614 -0.0004 6.63472192 6.53696531 1.26014501
6
-106344.51541990347
C -0.2475 0.5747 -0.0001 -8.55416328 10.84512857 -1.10262705
O -1.4299 0.3110 -0.0000 -32.98300501 4.74102512 1.06025935
H 1.6511 -0.1806 0.0002 12.31322536 -10.50096928 -0.13234310
H 0.2041 -1.2904 0.0000 17.63949347 -15.26569329 0.10799749
H 0.1472 1.5986 0.0000 7.60097136 13.75665467 -0.10291713
N 0.6731 -0.3943 -0.0002 3.98354591 -3.57613014 0.16979252
6
-106346.6590548229
C -0.2639 0.5845 -0.0001 -2.10146115 2.22000836 0.88288107
O -1.4341 0.2717 -0.0001 -30.56748158 9.05813779 3.78783403
H 1.6717 -0.2076 0.0003 4.04960372 -4.25244988 -0.09263128
H 0.2265 -1.2717 0.0000 12.77588555 -21.45680314 0.40695467
H 0.1193 1.6162 0.0000 3.15296335 10.16362604 -0.98348998
N 0.6786 -0.3741 -0.0001 12.44106497 1.04875024 -1.80224124
6
-106340.83137397548
C -0.2320 0.5877 -0.0001 0.04834638 7.12165925 3.12911811
O -1.3834 0.1994 -0.0002 -40.63425924 11.67763387 -0.60150461
H 1.7222 -0.2671 0.0002 -0.46679678 -3.44861360 -0.08897150
H 0.1276 -1.1878 0.0003 24.09198872 -27.42986396 0.80612593
H 0.0469 1.6479 0.0002 9.89148872 10.17127238 -0.09110796
N 0.7169 -0.3611 -0.0005 7.91702317 -0.55791176 -1.72963337
6
-106337.19729471441
C -0.2118 0.5716 -0.0000 -13.18928359 -6.80483484 1.31432291
O -1.3964 0.3054 0.0000 -33.26870193 10.66283843 -1.21690984
H 1.6951 -0.1510 0.0002 -40.16573827 -41.87707365 -0.24059678
H 0.0699 -1.2539 0.0000 22.75027567 -37.68069728 -0.45361484
H 0.1703 1.5947 -0.0000 12.08564235 14.66323204 0.20286495
N 0.6711 -0.4478 -0.0002 50.95016350 61.03653018 0.72788248
6
-106339.6731387304
C -0.2322 0.5792 -0.0002 -12.52953266 7.66544927 2.15728402
O -1.3874 0.1945 -0.0001 -35.47329991 21.63022003 -0.79471983
H 1.6927 -0.2031 0.0002 4.32189995 -12.70191133 0.70862134
H 0.1129 -1.1979 0.0001 26.57577982 -29.25258146 0.33040018
H 0.1135 1.6165 0.0002 2.37832050 17.14897762 -0.41736895
N 0.6986 -0.3702 -0.0001 19.08333992 -1.95493289 -1.38981915
6
-106345.6661667049
C -0.2608 0.5825 -0.0001 3.27531734 3.00244227 -0.17593168
O -1.4311 0.2765 -0.0001 -36.94105790 8.70022159 0.52858295
H 1.6652 -0.1993 0.0003 8.50303193 -4.88806118 0.29839772
H 0.2217 -1.2752 0.0000 13.21631745 -18.29984798 0.21805862
H 0.1260 1.6113 0.0000 3.88084143 13.28929091 0.33860050
N 0.6771 -0.3767 -0.0001 8.06555676 -1.80407913 -1.20760174
6
-106338.43864530842
C -0.2324 0.5790 -0.0002 -20.41357169 9.19629270 -2.92479209
O -1.3875 0.1937 -0.0001 -29.25291263 19.30670427 1.86835153
H 1.6929 -0.2023 0.0002 5.52190698 -12.10767896 -1.38566879
H 0.1136 -1.1979 0.0001 27.04456908 -30.03174387 0.19561887
H 0.1127 1.6165 0.0002 2.14156850 15.63923715 0.83409026
N 0.6988 -0.3700 -0.0001 17.44800092 -3.92466776 1.41234045
6
-106339.28520072247
C -0.2379 0.5877 -0.0002 -6.57449720 6.27681199 0.90281147
O -1.3947 0.1952 -0.0004 -26.24361171 14.01910217 0.04155045
H 1.7248 -0.2702 0.0001 0.61164048 -1.48472837 0.34455461
H 0.1281 -1.1793 0.0007 25.41313762 -29.66504349 0.08319958
H 0.0581 1.6413 0.0004 6.42786618 13.19768545 -0.70474606
N 0.7198 -0.3557 -0.0006 0.36536633 -2.91768886 -0.66732676
6
-106337.46057162202
C -0.2218 0.5778 -0.0000 14.50991112 -1.82258448 -3.24245967
O -1.4010 0.3397 0.0000 -51.63553781 0.81955718 3.23004322
H 1.7110 -0.1476 0.0001 -46.41561472 -38.34474705 -0.03573977
H 0.0519 -1.3063 0.0001 55.47650168 17.92287556 0.25730769
H 0.1816 1.5847 -0.0000 13.31565456 22.71228075 -0.02396461
N 0.6764 -0.4292 -0.0002 16.91963789 -0.38456656 -1.29433635
6
-106338.77105825547
C -0.2214 0.5699 -0.0001 -11.14802542 16.24522299 -1.06830373
O -1.3845 0.2260 -0.0000 -42.46580712 13.48009856 -0.32737805
H 1.6758 -0.1794 0.0002 16.12109376 -15.84544489 -0.26419886
H 0.0974 -1.2155 0.0000 34.34003836 -22.73564863 0.13399016
H 0.1323 1.6064 0.0001 4.51356884 15.17275960 0.33953596
N 0.6986 -0.3885 -0.0001 -1.36101856 -4.23264614 -0.82139450
6
-106340.44359643293
C -0.2317 0.5880 -0.0001 -10.54587153 8.61196633 1.61277268
O -1.3835 0.1992 -0.0002 -33.68871051 10.19397678 -0.77265881
H 1.7210 -0.2660 0.0001 -0.70881147 -3.45392092 0.66443090
H 0.1275 -1.1884 0.0003 25.77968667 -26.02428164 0.52350267
H 0.0471 1.6477 0.0002 10.00394026 11.72402602 0.18947555
N 0.7176 -0.3615 -0.0004 6.40262083 -0.39386664 -1.22300726
6
-106345.80650320427
C -0.2478 0.5710 -0.0000 0.78770450 12.94636676 -0.52650258
O -1.4313 0.3334 -0.0000 -34.92152851 2.28260936 -0.34967053
H 1.6490 -0.1781 0.0002 9.80453643 -13.48916167 0.49320675
H 0.1980 -1.2968 0.0000 16.75382577 -20.72207053 0.47544800
H 0.1590 1.5972 0.0000 6.81348592 9.09586780 -0.38518398
N 0.6712 -0.4077 -0.0002 0.76194203 9.88642023 -0.54546191
6
-106338.33047689061
C -0.2326 0.5788 -0.0002 -16.23098393 5.38544662 -1.48681004
O -1.3875 0.1929 -0.0001 -34.05339871 20.64777946 0.90155097
H 1.6930 -0.2016 0.0002 5.00077122 -11.31785822 -0.30328701
H 0.1142 -1.1979 0.0001 27.77637830 -28.75877185 -0.65046411
H 0.1120 1.6165 0.0002 2.34921439 16.36350516 0.05595135
N 0.6990 -0.3697 -0.0001 15.15804415 -2.32020415 1.48300926
6
-106345.71364487267
C -0.2623 0.5900 -0.0001 4.78639052 8.52788347 1.12903002
O -1.4325 0.2765 -0.0002 -35.90310875 2.49570703 2.00890356
H 1.6870 -0.2483 0.0002 4.77764487 1.97544788 0.17293887
H 0.2392 -1.2671 0.0003 10.01872000 -15.62714442 0.03309885
H 0.0773 1.6356 0.0002 8.58476380 9.03769967 -0.99228318
N 0.6893 -0.3677 -0.0005 5.05116483 -2.35458344 0.11627876
6
-106345.50246987032
C -0.2442 0.5799 -0.0000 -3.56804919 2.55571443 -2.17202987
O -1.4360 0.3690 0.0000 -26.64411279 -0.09952110 1.20725349
H 1.6548 -0.1874 0.0002 -12.94447023 -21.09054227 0.20337197
H 0.1848 -1.3066 0.0001 10.39298200 -30.68282584 -0.31279634
H 0.1818 1.5937 -0.0000 9.97127179 10.75856528 -0.17768079
N 0.6569 -0.4297 -0.0002 22.79236259 38.55854857 1.25200877
6
-106335.34789280572
C 0.0575 0.4549 0.0002 -5.54403406 6.97179404 -1.79441321
O -1.1667 -0.0935 -0.0002 -16.02541815 3.54785479 1.15507998
H 1.9469 0.0850 -0.0003 13.06986610 14.99287585 -0.46848498
H -0.9131 -1.0339 -0.0000 -8.76273219 -5.72488961 -0.50155324
H 0.0389 1.5462 0.0000 -1.27676226 8.87584681 0.43007574
N 1.0346 -0.3396 0.0003 18.53904847 -28.66360458 1.17940065
6
-106330.76630278624
C 0.0242 0.4817 0.0002 1.45440929 -5.33759738 -1.21331798
O -1.1808 -0.1037 -0.0002 -8.76209533 0.17389655 0.96870404
H 1.9093 0.0306 -0.0006 21.98429127 18.58376484 0.21483183
H -0.7886 -1.0115 -0.0001 -24.27648355 -3.52723640 -0.08871783
H 0.0497 1.5657 0.0001 -4.58019783 14.41903256 0.47328225
N 0.9843 -0.3437 0.0007 12.29119549 -24.31184861 -0.35472747
6
-106331.23246457157
C 0.0319 0.4846 0.0002 -4.10933475 10.66463265 1.65967816
O -1.1722 -0.1034 -0.0003 -14.45842902 3.07346829 1.41147522
H 1.9308 0.0083 -0.0002 15.25373499 18.38149890 -0.02570999
H -0.7982 -1.0128 0.0001 -19.56574765 -6.51423533 -0.19837191
H 0.0171 1.5775 0.0001 -0.78822053 6.66692533 -1.41443182
N 0.9888 -0.3352 0.0002 26.80745122 -30.83357950 -0.52585138
6
-106331.14831083405
C -0.2030 0.5795 -0.0001 -13.23592324 14.44616467 2.23761602
O -1.3431 0.1385 -0.0002 -37.38911808 21.79133017 0.51947413
H 1.7457 -0.2532 0.0000 -1.37826572 -10.25847800 0.59312392
H 0.0246 -1.1243 0.0002 45.94124479 -29.34901169 0.88838996
H 0.0348 1.6446 0.0002 9.87094222 13.31473008 0.39264056
N 0.7391 -0.3661 -0.0001 -1.10299729 -3.13706159 -2.44409430
6
-106331.32946054467
C 0.0316 0.4853 0.0002 3.70170785 6.05274308 -2.74716951
O -1.1728 -0.1034 -0.0003 -15.08149729 0.51689294 -0.25965630
H 1.9293 0.0091 -0.0002 17.55327455 18.90525343 -0.19014477
H -0.7977 -1.0125 0.0001 -21.26444827 -6.20930828 -0.14318984
H 0.0178 1.5770 0.0001 -1.17208270 7.14967824 0.07409818
N 0.9899 -0.3366 0.0002 18.47227848 -25.74215068 4.00809133
6
-106332.59652240467
C -0.2013 0.5790 -0.0001 -7.29691272 22.35287098 -1.65858659
O -1.3414 0.1406 -0.0002 -49.64046286 11.79167393 0.64348485
H 1.7454 -0.2530 0.0001 -2.67048860 -11.29686095 0.18574841
H 0.0241 -1.1254 0.0002 45.95599147 -28.81821221 0.30552110
H 0.0333 1.6452 0.0002 10.37928373 12.93044914 -0.34012353
N 0.7380 -0.3675 -0.0002 3.27250614 -5.13967438 -1.47961794
6
-106331.79594082564
C 0.0319 0.4846 0.0002 -3.07129803 6.88073008 -0.67773096
O -1.1722 -0.1034 -0.0003 -15.44806336 1.86103218 -0.33571464
H 1.9308 0.0083 -0.0002 15.47215444 19.13033699 0.45551140
H -0.7982 -1.0128 0.0001 -20.19935431 -6.33689301 0.25784782
H 0.0171 1.5775 0.0001 -0.63470605 6.39055032 0.27592153
N 0.9888 -0.3352 0.0002 23.88124573 -27.52898867 0.02428852
6
-106330.69333527453
C -0.2130 0.5748 -0.0004 -16.56703575 1.59643758 3.57673462
O -1.3529 0.1210 -0.0003 -38.41178338 31.25324569 2.07417951
H 1.7288 -0.2074 0.0001 -4.20948644 -15.45491202 0.38073572
H 0.0168 -1.1261 0.0005 44.44285742 -31.59065483 1.20377463
H 0.0951 1.6211 0.0004 0.51974496 18.22066699 0.14515420
N 0.7234 -0.3643 -0.0003 16.01074314 -4.05655547 -2.83133240
6
-106335.51806342769
C 0.0586 0.4540 0.0002 -13.71901686 10.82262068 -0.28007174
O -1.1669 -0.0937 -0.0002 -13.21062410 3.49862922 0.61886154
H 1.9466 0.0859 -0.0004 11.36828859 13.41228250 0.39111810
H -0.9127 -1.0335 -0.0001 -9.32969235 -5.58790316 -0.37823631
H 0.0396 1.5460 0.0000 -0.84056977 8.47767333 -0.20966487
N 1.0329 -0.3397 0.0004 25.73150605 -30.62328144 -0.14196993
6
-106335.14505846512
C 0.0523 0.4499 0.0001 -8.92892431 10.65570932 1.16486075
O -1.1720 -0.0962 -0.0002 -13.13288764 2.47847062 -0.92385868
H 1.9261 0.1045 -0.0002 13.86202758 12.86291488 0.01233776
H -0.9040 -1.0355 0.0000 -11.27876562 -4.31730518 -0.21927200
H 0.0704 1.5427 0.0000 -4.65161339 6.59218642 0.12283173
N 1.0252 -0.3464 0.0002 24.13023290 -29.09693149 -0.15693417
6
-106334.6044436753
C 0.0581 0.4555 0.0001 -10.48596057 5.06556421 -0.70767883
O -1.1662 -0.0934 -0.0002 -15.18972623 4.00827381 -0.38278510
H 1.9509 0.0820 -0.0002 10.89799556 15.50911861 0.08963307
H -0.9158 -1.0350 0.0000 -8.00715603 -1.01722902 -0.37213626
H 0.0354 1.5472 0.0001 -0.11007075 8.63074390 0.59834775
N 1.0357 -0.3374 0.0002 22.89499088 -29.14800800 0.77457031
6
-106335.31336536177
C 0.0523 0.4499 0.0001 -9.40367080 11.71985591 -0.64955314
O -1.1720 -0.0962 -0.0002 -12.48621192 4.16067027 0.08438781
H 1.9261 0.1045 -0.0002 13.56594829 13.08995179 0.26648233
H -0.9040 -1.0355 0.0000 -11.15201346 -5.11231120 -0.05649320
H 0.0704 1.5427 0.0000 -5.50735337 6.95778564 1.05849011
N 1.0252 -0.3464 0.0002 24.98337078 -30.81594776 -0.70334860
6
-106328.71443018908
C -0.1909 0.5611 -0.0003 -29.97972268 18.41496881 -0.89247203
O -1.3476 0.1614 -0.0001 -38.16316913 23.43621631 0.33672969
H 1.6972 -0.1625 0.0001 11.19394407 -24.48354023 -0.45691921
H -0.0053 -1.1533 0.0002 49.98004416 -26.60949297 -0.31023058
H 0.1266 1.6073 0.0002 3.05927773 14.49672750 -0.08487923
N 0.7180 -0.3949 -0.0002 3.90956521 -5.25487861 1.68402593
6
-106330.1291882352
C 0.0189 0.4772 0.0002 0.72273369 4.78005475 0.36646076
O -1.1856 -0.1086 -0.0002 -8.19805297 -3.37620128 0.21514335
H 1.8834 0.0556 -0.0003 22.66067829 15.01971919 0.24001072
H -0.7817 -1.0207 -0.0000 -27.29918548 3.45732850 0.12078449
H 0.0919 1.5687 0.0000 -10.32011492 4.64890254 0.02454344
N 0.9712 -0.3532 0.0003 23.06237433 -24.52983401 -0.96687909
6
-106332.01203261968
C 0.0242 0.4817 0.0002 3.23849087 -7.79769165 -0.19029704
O -1.1808 -0.1037 -0.0002 -10.24887674 3.52450434 2.63676021
H 1.9093 0.0306 -0.0006 23.35742588 18.95923533 0.47087233
H -0.7886 -1.0115 -0.0001 -23.09922253 -7.55342893 -0.38930407
H 0.0497 1.5657 0.0001 -6.31549291 13.15794377 0.42215646
N 0.9843 -0.3437 0.0007 11.88351933 -20.94786216 0.10317230
6
-106332.55453821494
C -0.2013 0.5790 -0.0001 -12.42153213 14.47939230 0.94243415
O -1.3414 0.1406 -0.0002 -44.40214783 17.30060968 -0.92494121
H 1.7454 -0.2530 0.0001 -2.58784425 -11.20205789 -0.36156415
H 0.0241 -1.1254 0.0002 44.98453320 -29.38707423 -0.18851656
H 0.0333 1.6452 0.0002 10.03682316 13.77581035 0.10504714
N 0.7380 -0.3675 -0.0002 4.39008531 -4.96670047 0.42761211
6
-106335.6527808678
C 0.0546 0.4535 0.0001 -7.88074253 2.05886241 1.52917118
O -1.1705 -0.0948 -0.0002 -14.08926693 7.21004157 0.28755348
H 1.9393 0.0923 -0.0004 13.36081481 14.18167084 0.89073182
H -0.9078 -1.0319 -0.0001 -9.65438234 -7.46103816 0.16644732
H 0.0511 1.5413 0.0001 -1.87221537 11.71527462 -0.95919973
N 1.0315 -0.3414 0.0005 19.66915869 -27.08598208 -1.91462518
6
-106332.0151461393
C -0.2090 0.5760 -0.0001 -11.19797330 15.86589882 -2.48840526
O -1.3524 0.1385 -0.0003 -34.52372258 18.26657638 2.35464589
H 1.7532 -0.2588 0.0002 -6.48649691 -8.95249128 -0.09917364
H 0.0237 -1.1151 0.0003 46.29684775 -31.68421063 0.35209271
H 0.0405 1.6380 0.0003 6.43820308 14.51053530 -0.15520215
N 0.7420 -0.3596 -0.0004 -0.52689262 -8.00620134 0.03611932
6
-106334.70463538604
C 0.0586 0.4540 0.0002 -7.67779666 7.93803034 -0.60848187
O -1.1669 -0.0937 -0.0002 -15.64048473 7.54988470 0.85001916
H 1.9466 0.0859 -0.0004 10.74440805 14.30266604 1.12127461
H -0.9127 -1.0335 -0.0001 -8.44710024 -8.33595508 -0.86857557
H 0.0396 1.5460 0.0000 -1.70033966 7.84355483 0.09612394
N 1.0329 -0.3397 0.0004 22.72120472 -29.29815967 -0.59032339
6
-106334.98342030069
C 0.0547 0.4511 0.0001 -14.10106794 11.88135820 -2.48988770
O -1.1723 -0.0955 -0.0002 -11.39933517 2.85262185 0.41925732
H 1.9322 0.0996 -0.0003 11.31736030 11.88523404 0.40378539
H -0.9051 -1.0341 -0.0000 -11.21279069 -3.89658969 0.11062577
H 0.0624 1.5418 0.0001 -3.91976598 9.22856220 0.11299194
N 1.0261 -0.3439 0.0003 29.31566809 -31.95121225 1.44333541
6
-106332.42853879114
C 0.0316 0.4853 0.0002 -2.00288999 4.09609578 -0.45141653
O -1.1728 -0.1034 -0.0003 -12.89226635 1.72017114 1.33601045
H 1.9293 0.0091 -0.0002 17.33592139 19.69089527 0.59882439
H -0.7977 -1.0125 0.0001 -20.53821642 -6.16222200 -0.13950810
H 0.0178 1.5770 0.0001 -0.67477266 7.38643695 -0.35299377
N 0.9899 -0.3366 0.0002 18.77228743 -26.73139049 -0.99079390
6
-106335.87195787755
C 0.0527 0.4401 0.0001 -11.47712292 18.67353265 -0.82278144
O -1.1712 -0.1000 -0.0001 -16.86111472 13.50418779 -0.03922353
H 1.9134 0.1258 -0.0000 17.46230804 12.41715992 0.41572808
H -0.9162 -1.0334 0.0000 -8.23593081 -14.06738687 0.12161901
H 0.0912 1.5350 0.0000 -8.68216364 5.25767150 0.05608651
N 1.0282 -0.3484 -0.0000 27.79404370 -35.78514941 0.26861555
6
-106334.99261497229
C 0.0527 0.4401 0.0001 -9.32418882 16.46004620 3.22106064
O -1.1712 -0.1000 -0.0001 -17.31614088 12.43496367 -1.20227687
H 1.9134 0.1258 -0.0000 18.82117336 13.40697488 0.70106348
H -0.9162 -1.0334 0.0000 -8.68676570 -12.67521895 0.03849402
H 0.0912 1.5350 0.0000 -7.18642856 7.24211626 -0.67410283
N 1.0282 -0.3484 -0.0000 29.23617724 -38.02966879 -2.57536277
6
-106330.6797058291
C -0.2035 0.5799 -0.0001 -12.41502139 11.22256628 1.12419866
O -1.3430 0.1384 -0.0002 -38.67325486 18.33907935 -2.95973619
H 1.7460 -0.2532 0.0000 -1.98041661 -11.01231410 0.36193383
H 0.0243 -1.1254 0.0002 46.14002882 -27.58594574 0.09992228
H 0.0348 1.6458 0.0002 8.73526608 13.26416200 -0.20473042
N 0.7394 -0.3665 -0.0001 1.03657347 -4.22760334 -0.20404928
6
-106330.64702272968
C -0.2013 0.5790 -0.0001 -11.13368207 14.97659785 1.23645989
O -1.3414 0.1406 -0.0002 -41.83666877 16.43879688 -0.53831686
H 1.7454 -0.2530 0.0001 -3.54252696 -10.91870839 0.10619817
H 0.0241 -1.1254 0.0002 44.24467112 -29.50172447 -0.38695667
H 0.0333 1.6452 0.0002 9.09267415 13.17581497 -0.13258940
N 0.7380 -0.3675 -0.0002 3.17544993 -3.56304999 -0.28472355
6
-106330.57138549176
C 0.0333 0.4825 0.0002 -7.78533945 9.68273698 0.47049065
O -1.1737 -0.1029 -0.0002 -8.55793897 5.16806027 3.32053607
H 1.9274 0.0116 -0.0003 18.91740214 19.77202105 -0.15701597
H -0.7976 -1.0096 0.0000 -22.85757623 -8.17922249 -0.59529166
H 0.0185 1.5738 0.0001 -0.87212844 7.50560992 0.00052767
N 0.9902 -0.3364 0.0003 21.25166239 -30.74639411 -0.93863998
6
-106334.17082939167
C 0.0579 0.4553 0.0002 -8.14805011 6.94522079 -1.08395881
O -1.1666 -0.0933 -0.0002 -14.45187895 2.67075421 0.17381978
H 1.9492 0.0834 -0.0003 11.96828378 15.48259643 0.00019421
H -0.9143 -1.0347 -0.0000 -9.26741558 -4.41492386 -0.31152893
H 0.0371 1.5466 0.0000 -0.10946353 8.12969541 0.59303044
N 1.0349 -0.3384 0.0003 20.00836909 -28.81326956 0.62838326
6
-106334.13636401387
C 0.0503 0.4511 0.0001 -1.90454354 3.82554149 0.49226692
O -1.1706 -0.1002 -0.0002 -17.75582565 12.36309963 -0.13225207
H 1.9210 0.1077 -0.0002 16.61729363 13.42377422 0.18961962
H -0.9043 -1.0336 0.0000 -9.05854028 -10.34556302 -0.11139661
H 0.0760 1.5429 0.0000 -6.10246531 6.91576522 -0.18243463
N 1.0257 -0.3488 0.0002 18.20403657 -26.18263793 -0.25582715
6
-106329.05530243766
C -0.1907 0.5511 -0.0001 10.98654715 23.28265294 -0.63574496
O -1.3468 0.2073 0.0000 -66.70476887 8.92926879 1.13631646
H 1.7036 -0.1248 0.0001 -12.26266914 -39.01985296 -0.25444464
H -0.0251 -1.1852 0.0000 55.53543058 -22.90707043 0.36187161
H 0.1424 1.6015 0.0001 6.89933734 7.52502061 -1.08905498
N 0.7146 -0.4309 -0.0001 6.33970066 22.18996081 0.48094907
6
-106319.47879561476
C -0.1682 0.5691 -0.0002 -18.46053940 16.00722469 0.51556821
O -1.3021 0.0806 -0.0002 -43.68614237 20.60167995 2.44947579
H 1.7710 -0.2263 -0.0000 -4.75840153 -14.75810430 0.23259284
H -0.0915 -1.0726 0.0002 61.94919034 -23.40102916 0.26295808
H 0.0256 1.6410 0.0003 7.82058971 12.90135377 -0.01624558
N 0.7633 -0.3729 -0.0000 -2.86471151 -11.35095387 -1.31550984
6
-106322.27801092959
C -0.0208 0.5091 -0.0000 16.77709246 -7.75944743 -1.20393018
O -1.1972 -0.1089 -0.0002 -5.08704522 -16.75552200 1.51118070
H 1.8683 -0.0340 -0.0004 22.41329991 17.30420350 -0.46470162
H -0.6355 -0.9855 0.0000 -48.65700643 7.45936316 0.04753937
H 0.0605 1.5877 0.0002 -8.63468074 15.28810772 -0.91524142
N 0.9228 -0.3494 0.0005 19.74903737 -15.53671785 1.02523724
6
-106317.10363751613
C -0.1512 0.5461 -0.0004 -45.27898532 16.57122365 4.38250675
O -1.3177 0.1123 -0.0001 -23.09600228 25.53270306 -3.51100071
H 1.7168 -0.1184 0.0001 14.66292923 -28.14002168 -0.68514971
H -0.1256 -1.1208 0.0003 65.95357529 -11.58630079 0.36310045
H 0.1268 1.6053 0.0003 1.73259456 11.21609997 1.02907835
N 0.7490 -0.4056 -0.0002 -13.97416641 -14.54005497 -0.57936652
6
-106324.9616142458
C -0.0049 0.5146 0.0001 6.41771523 10.79060800 4.75820923
O -1.1814 -0.1155 -0.0003 -13.03039038 -10.73216672 -0.70732236
H 1.8985 -0.0706 -0.0002 21.56602545 21.97758534 -0.13681708
H -0.6589 -0.9854 0.0002 -39.20385371 -2.21260483 -0.79413813
H 0.0080 1.6080 0.0002 -3.50070947 5.14554609 -1.08311961
N 0.9368 -0.3321 0.0001 26.88690240 -24.43172483 -1.57684684
6
-106323.72197146446
C -0.0035 0.5150 0.0001 2.17329807 4.52591800 -3.69248746
O -1.1809 -0.1146 -0.0003 -7.03734904 -5.43035187 2.93978928
H 1.8989 -0.0722 -0.0002 23.44286210 21.74792175 0.52811227
H -0.6587 -0.9845 0.0001 -40.05435057 -1.87381230 0.32229880
H 0.0050 1.6065 0.0001 -3.05352039 6.79027316 -1.87391256
N 0.9372 -0.3311 0.0001 24.52916302 -25.75999303 -0.03294085
6
-106324.62670941187
C -0.0049 0.5146 0.0001 4.79331051 7.40957850 -1.94880987
O -1.1814 -0.1155 -0.0003 -12.95087580 -6.92298162 1.65954524
H 1.8985 -0.0706 -0.0002 21.07704422 21.96779530 -0.55180692
H -0.6589 -0.9854 0.0002 -39.61807420 -2.85568374 0.31852380
H 0.0080 1.6080 0.0002 -2.46842703 4.79840467 -0.26702237
N 0.9368 -0.3321 0.0001 27.98374814 -24.39711815 0.78956709
6
-106319.61861122696
C -0.1896 0.5638 -0.0003 1.80795925 13.72119866 -2.53223452
O -1.3149 0.0640 -0.0002 -49.16461320 22.04363013 1.33012307
H 1.7635 -0.2041 0.0002 -0.04741162 -13.48704170 -0.14559731
H -0.0922 -1.0623 0.0003 61.15684457 -28.44087817 0.79985173
H 0.0684 1.6208 0.0003 -0.48062635 17.99833706 0.44385967
N 0.7628 -0.3632 -0.0003 -17.89899925 -11.83529662 0.10394347
6
-106320.24107487648
C -0.1703 0.5693 -0.0001 -19.02431800 17.75743811 -3.50691701
O -1.3036 0.0786 -0.0001 -42.08342934 21.07895118 1.46381811
H 1.7727 -0.2288 0.0000 -5.55833873 -14.34427305 0.54675087
H -0.0906 -1.0701 0.0001 62.75156377 -24.18167462 -0.18164193
H 0.0259 1.6402 0.0002 8.09358911 13.44614557 0.20523059
N 0.7640 -0.3701 -0.0001 -4.17900898 -13.75659707 2.34003589
6
-106324.50895784784
C -0.0031 0.5151 0.0002 2.37618278 8.73718156 0.98020919
O -1.1806 -0.1140 -0.0003 -9.90344740 -9.40466672 0.74139712
H 1.8992 -0.0727 -0.0003 22.43579921 22.33342554 -0.26581277
H -0.6584 -0.9837 0.0001 -40.62852191 -1.59895291 -0.07808387
H 0.0036 1.6058 0.0001 -2.34934089 6.23053028 -0.84864127
N 0.9373 -0.3314 0.0002 28.06933554 -26.29747628 -0.52905551
6
-106319.43139583958
C -0.1707 0.5696 -0.0002 -19.06838300 14.82469778 0.63016621
O -1.3032 0.0791 -0.0001 -40.63940444 22.00585060 0.28472789
H 1.7722 -0.2280 -0.0000 -4.44977865 -13.93154073 0.11753331
H -0.0911 -1.0713 0.0001 63.18970351 -23.27467707 -0.48427000
H 0.0264 1.6403 0.0002 7.71643709 13.54779774 -0.30913084
N 0.7646 -0.3707 -0.0000 -8.21669258 -13.17219059 -0.23914176
6
-106320.51619765538
C -0.1703 0.5693 -0.0001 -16.22631042 14.56857023 0.09263280
O -1.3036 0.0786 -0.0001 -46.43310505 22.93369084 -0.29948260
H 1.7727 -0.2288 0.0000 -4.81438778 -14.40295888 -0.07796236
H -0.0906 -1.0701 0.0001 63.56875559 -25.48787137 0.04466715
H 0.0259 1.6402 0.0002 8.43220252 13.81059724 0.52785270
N 0.7640 -0.3701 -0.0001 -4.52709698 -13.71151607 -0.28766977
6
-106323.83536849426
C -0.0035 0.5150 0.0001 1.82275766 6.43035001 -1.63746810
O -1.1809 -0.1146 -0.0003 -9.14647820 -6.08234406 2.83800675
H 1.8989 -0.0722 -0.0002 22.43256296 22.34413791 -0.12445922
H -0.6587 -0.9845 0.0001 -38.36675080 -2.18431278 -1.23456307
H 0.0050 1.6065 0.0001 -2.71082734 6.43099512 -0.32420309
N 0.9372 -0.3311 0.0001 27.23365479 -26.93887052 0.48277516
6
-106316.10756491958
C -0.1599 0.5434 -0.0003 6.42086021 29.02670222 0.79392321
O -1.3069 0.1509 0.0000 -74.63168305 6.73653529 2.14386566
H 1.7357 -0.0970 0.0001 -20.63877271 -42.31800152 -1.12982720
H -0.1498 -1.1508 0.0002 72.33238796 -4.54838827 0.72769514
H 0.1405 1.6005 0.0002 4.29207646 8.52422348 -0.27478006
N 0.7384 -0.4280 -0.0002 5.40349006 1.66596880 0.65981696
6
-106320.1546834284
C -0.1687 0.5688 -0.0001 -15.48799736 14.15608892 -0.09039501
O -1.3054 0.0866 -0.0002 -40.00434611 15.61204099 0.67027845
H 1.7748 -0.2254 0.0000 -3.88184399 -13.83508898 -0.56382329
H -0.0938 -1.0738 0.0002 63.40467661 -13.06999028 0.18784158
H 0.0237 1.6358 0.0002 10.29888431 19.91028254 -0.82672618
N 0.7675 -0.3730 -0.0001 -13.80770119 -14.53204838 1.98033052
6
-106319.54076319643
C -0.1703 0.5693 -0.0001 -19.08134280 13.93642719 -0.14577120
O -1.3036 0.0786 -0.0001 -42.91795819 21.25224523 -0.89349948
H 1.7727 -0.2288 0.0000 -4.51573938 -14.78403963 0.61886347
H -0.0906 -1.0701 0.0001 62.62711692 -22.85443750 -0.76733206
H 0.0259 1.6402 0.0002 8.63288792 13.19412991 1.10508259
N 0.7640 -0.3701 -0.0001 -4.74490675 -10.74433509 0.08269456
6
-106323.61236080794
C -0.0149 0.5080 -0.0001 11.51555042 2.74823034 1.74606689
O -1.1899 -0.1113 -0.0002 -5.37406038 -8.68791772 -0.40845575
H 1.8743 -0.0451 -0.0003 28.17307852 21.37985844 -0.31967012
H -0.6426 -0.9782 0.0001 -44.39048822 -0.99481333 0.68485866
H 0.0427 1.5876 0.0003 -5.87729419 14.24682238 -1.11116398
N 0.9284 -0.3420 0.0002 15.74836228 -23.44781843 0.19242850
6
-106319.92759013802
C -0.1703 0.5693 -0.0001 -23.33111041 17.31042736 1.08432601
O -1.3036 0.0786 -0.0001 -44.74813629 24.55442057 1.14564001
H 1.7727 -0.2288 0.0000 -4.17006135 -13.20465983 0.04254047
H -0.0906 -1.0701 0.0001 62.81168147 -24.50404508 1.29402358
H 0.0259 1.6402 0.0002 7.47327379 14.23210619 -1.21651167
N 0.7640 -0.3701 -0.0001 -1.28082735 -17.94920281 -0.68724393
6
-106319.07978354082
C -0.1849 0.5610 -0.0004 -11.50790483 18.15260521 0.94005892
O -1.3124 0.0620 -0.0001 -45.07881211 30.25143977 -0.81395114
H 1.7528 -0.1883 0.0001 -4.69266147 -18.25346451 1.42126916
H -0.0943 -1.0640 0.0003 56.66740198 -33.67335491 -0.10019843
H 0.0887 1.6168 0.0004 -2.55249415 16.56806959 -1.22147230
N 0.7483 -0.3686 -0.0003 11.48653383 -13.09926545 -0.22574157
6
-106322.73312272763
C -0.0215 0.5076 0.0004 7.99429163 -0.48071966 0.09590587
O -1.1953 -0.1304 -0.0003 -9.28458636 0.62238317 0.21819156
H 1.8357 -0.0144 -0.0006 39.93527292 20.42164191 0.25390953
H -0.6352 -0.9844 -0.0001 -44.80949290 -4.19624446 0.16349263
H 0.1020 1.5963 0.0000 -15.09854388 3.17202355 -0.36726084
N 0.9124 -0.3558 0.0006 17.57146624 -19.53904013 -0.36428587
6
-106308.19399436424
C -0.1343 0.5591 -0.0002 -10.96452979 15.12701412 -3.33268809
O -1.2671 0.0214 -0.0001 -39.56641627 12.80078216 0.98244676
H 1.7991 -0.2005 0.0000 1.67109109 -9.61719075 0.10858194
H -0.2145 -1.0315 0.0001 46.88242546 -11.45343903 0.43765554
H 0.0190 1.6355 0.0002 4.02786274 11.80119392 0.78886492
N 0.7959 -0.3649 -0.0000 -1.77109951 -18.51966024 0.24537506
6
-106310.3065552804
C -0.0562 0.5395 0.0003 11.16205765 8.95268065 -0.89873459
O -1.2044 -0.0861 -0.0004 -2.98525653 -30.64089208 2.16193557
H 1.8547 -0.1395 -0.0002 22.80776777 18.18999479 -0.95861867
H -0.4829 -0.9834 0.0002 -53.42078038 17.77752558 -0.38580460
H 0.0097 1.6253 0.0001 -3.19077448 8.91971198 -0.73213493
N 0.8772 -0.3368 0.0001 25.14629116 -20.57218323 0.81327447
6
-106309.3401172699
C -0.0632 0.5281 -0.0001 13.86179072 8.85157223 -3.48475096
O -1.2128 -0.0921 -0.0003 -2.28927441 -28.46605851 1.57976403
H 1.8389 -0.1050 -0.0001 20.64962742 14.52770168 0.57601081
H -0.4801 -0.9704 0.0003 -57.13637862 5.49144671 -1.17911722
H 0.0460 1.6034 0.0003 -6.51985727 15.88898336 0.97076359
N 0.8692 -0.3450 -0.0000 29.60198439 -20.38745497 1.53739343
6
-106310.72949377807
C -0.0627 0.5284 -0.0001 10.76992888 12.92097084 0.80188547
O -1.2130 -0.0905 -0.0003 -0.08768203 -25.94630090 -0.66512886
H 1.8387 -0.1070 -0.0001 19.41603053 13.08482312 -0.37729802
H -0.4814 -0.9697 0.0003 -55.02502752 5.28850290 0.17355058
H 0.0478 1.6035 0.0003 -7.34873378 15.83537993 -0.65986201
N 0.8687 -0.3458 -0.0000 32.27561202 -21.18341359 0.72688220
6
-106308.32367171692
C -0.1343 0.5591 -0.0002 -20.56303853 12.65481218 -3.10987219
O -1.2671 0.0214 -0.0001 -28.72838651 17.44025589 2.88158527
H 1.7991 -0.2005 0.0000 0.43433158 -8.92215703 1.21440060
H -0.2145 -1.0315 0.0001 47.91102871 -13.89998058 0.45573552
H 0.0190 1.6355 0.0002 3.86821242 12.63796538 0.23286397
N 0.7959 -0.3649 -0.0000 0.21447427 -21.89351441 0.45472572
6
-106309.30131830469
C -0.0626 0.5274 -0.0002 5.85287983 6.61745209 -2.49632747
O -1.2143 -0.1066 -0.0003 -0.60035294 -13.97417601 0.39236374
H 1.8156 -0.0831 -0.0001 26.39316261 12.17209373 -0.05950872
H -0.4809 -0.9639 0.0003 -58.54709218 -0.14156350 0.47300383
H 0.0818 1.6037 0.0003 -10.69603585 10.67319214 0.07862748
N 0.8585 -0.3586 -0.0000 37.59739063 -15.34715236 0.25454432
6
-106309.69153717317
C -0.0579 0.5228 0.0002 12.49100689 8.33198206 0.04750599
O -1.2159 -0.0813 -0.0003 -2.81651835 -34.06080924 0.99229532
H 1.7937 -0.0433 -0.0004 41.68181642 11.88484159 -0.32667103
H -0.5034 -1.0165 0.0001 -55.48285562 27.03445551 -0.46153924
H 0.1188 1.6037 0.0001 -13.97273390 4.67440892 -0.28116620
N 0.8629 -0.3665 0.0003 16.74183147 -17.86487012 0.02961738
6
-106307.30621624537
C -0.1559 0.5448 -0.0001 4.87502467 30.94186479 -2.80984853
O -1.3290 0.2474 0.0000 -63.53214288 -10.33694075 2.54104263
H 1.7805 -0.0792 0.0001 -46.89190094 -44.60655634 0.65466760
H -0.2088 -1.2585 0.0001 90.29257877 38.20385855 -0.58410230
H 0.1684 1.5760 0.0000 12.56105057 24.23201619 0.71536405
N 0.7429 -0.4114 -0.0001 2.69531540 -38.43420184 -0.51711959
6
-106308.65750065811
C -0.1330 0.5592 -0.0003 -10.79143200 17.65570053 -0.90077786
O -1.2660 0.0220 -0.0001 -35.03852388 16.09933593 0.08319129
H 1.7979 -0.1989 -0.0000 -0.83855003 -8.94377730 0.15560170
H -0.2149 -1.0331 0.0001 48.24649001 -14.07771594 -1.45725914
H 0.0190 1.6367 0.0003 5.46116146 11.46183531 -0.40784140
N 0.7951 -0.3669 0.0000 -1.75790312 -21.68737526 2.98645655
6
-106306.48264721925
C -0.1429 0.5457 -0.0005 -23.74062708 25.64439487 -1.53704091
O -1.2740 0.0026 0.0000 -41.70305181 24.45824976 1.72439514
H 1.7654 -0.1451 0.0001 2.64532477 -15.79688878 0.58761652
H -0.2168 -1.0195 0.0002 37.92889419 -26.49192211 0.58466038
H 0.0938 1.6109 0.0004 -5.44608951 11.55549281 -0.15250544
N 0.7726 -0.3756 -0.0002 26.92046926 -18.40102344 0.41159509
6
-106311.37633798718
C -0.1473 0.5561 -0.0002 -30.03742573 -11.89163713 1.11500488
O -1.3233 0.1898 0.0000 -34.69321376 12.78935969 -1.24598110
H 1.7633 -0.0789 0.0001 -45.95710195 -52.41634358 0.42070221
H -0.1760 -1.1983 0.0001 81.38624236 16.27590827 -0.08608420
H 0.1509 1.5865 0.0001 13.00809762 28.47803002 0.66653057
N 0.7305 -0.4363 -0.0001 16.29343610 6.76467983 -0.87010441
6
-106307.90331603968
C -0.1480 0.5502 -0.0005 -8.57514159 18.25927489 3.07889582
O -1.2770 0.0036 -0.0000 -38.99909419 21.77288049 -2.28050844
H 1.7758 -0.1601 0.0001 3.40136578 -11.87368274 0.72009341
H -0.2155 -1.0164 0.0002 43.43456347 -25.50837212 0.67489121
H 0.0808 1.6111 0.0004 -4.84015836 17.99285767 -1.04770163
N 0.7820 -0.3695 -0.0002 8.90840569 -17.19630421 -1.85281617
6
-106310.15832482986
C -0.0627 0.5284 -0.0001 14.48186209 6.66041464 -0.92367000
O -1.2130 -0.0905 -0.0003 0.20119392 -27.37993820 0.94217644
H 1.8387 -0.1070 -0.0001 21.34792010 14.39936576 -0.38344224
H -0.4814 -0.9697 0.0003 -55.81034836 8.44564841 -1.63925405
H 0.0478 1.6035 0.0003 -6.92741572 16.10319011 -0.22464830
N 0.8687 -0.3458 -0.0000 32.59509391 -22.53996970 0.72140749
6
-106308.60729973167
C -0.0481 0.5189 0.0004 -5.32813406 15.87698664 -2.04505854
O -1.2181 -0.0491 -0.0003 -6.71207914 -44.81516839 2.18235236
H 1.8062 -0.0182 -0.0004 14.33352088 -0.52396336 0.15670567
H -0.5239 -1.0584 -0.0000 -49.49176324 46.09777241 -0.00429993
H 0.1264 1.5928 -0.0000 -11.95156481 9.94221562 -0.34930976
N 0.8557 -0.3669 0.0004 59.15008484 -24.80161065 1.77586127
6
-106310.22332154392
C -0.0627 0.5256 -0.0002 11.36142546 15.04244030 2.00113496
O -1.2143 -0.0989 -0.0003 -1.72950226 -23.65551087 0.68609085
H 1.8266 -0.0928 -0.0001 22.48108060 12.08361564 0.90874233
H -0.4806 -0.9651 0.0003 -57.73633388 2.18230776 0.92539218
H 0.0665 1.6023 0.0003 -10.13167709 12.81629397 -0.02454645
N 0.8625 -0.3520 -0.0000 35.15640908 -20.31340855 -1.70082822
6
-106305.9994763629
C -0.1217 0.5395 -0.0006 -18.19639333 18.67274405 1.58136797
O -1.2820 0.0533 0.0000 -17.01707628 8.54534976 4.01000575
H 1.7452 -0.0951 0.0001 19.23485789 -21.86149084 -1.33865405
H -0.2519 -1.0876 0.0003 42.91831416 1.25433782 -1.95033881
H 0.1272 1.6056 0.0004 -3.58607032 9.19135634 -0.74204667
N 0.7813 -0.3967 -0.0002 -9.65269256 -20.89053886 1.92094594
6
-106310.19130914027
C -0.0626 0.5274 -0.0002 12.41335490 12.04217630 -1.21926611
O -1.2143 -0.1066 -0.0003 -4.00195140 -18.99066862 2.15015625
H 1.8156 -0.0831 -0.0001 26.61948803 11.58211778 -0.05316759
H -0.4809 -0.9639 0.0003 -58.27673677 0.19250052 -0.39789671
H 0.0818 1.6037 0.0003 -10.45135888 11.90277951 0.86805061
N 0.8585 -0.3586 -0.0000 34.96185968 -14.17004265 -0.51992124
6
-106309.50071125063
C -0.1331 0.5584 -0.0003 -13.22470411 13.74840214 3.44666598
O -1.2691 0.0309 -0.0001 -34.25259044 9.27601979 -1.40728762
H 1.8031 -0.1969 -0.0000 -0.04701386 -8.81465814 0.35763279
H -0.2193 -1.0408 0.0002 44.93483510 -8.87366988 0.21737300
H 0.0188 1.6336 0.0003 5.91437762 13.71569913 -0.42726389
N 0.7977 -0.3661 0.0000 -3.32479119 -19.05184831 -1.57961832
6
-106311.69075680258
C -0.0568 0.5370 0.0003 7.87612280 10.63488178 1.16397183
O -1.2091 -0.0817 -0.0004 3.30631740 -31.06416848 0.98419674
H 1.8567 -0.1355 -0.0002 20.95180106 17.53209393 0.40688964
H -0.4833 -0.9840 0.0002 -52.73097318 15.70017495 -1.08470906
H 0.0116 1.6182 0.0001 -2.60031853 12.99356566 -0.20976689
N 0.8791 -0.3351 0.0000 23.19714282 -27.41621861 -1.26048992
6
-106302.33882992664
C -0.0922 0.5319 -0.0004 -2.20103760 18.02060614 -5.04577308
O -1.2471 -0.0113 0.0000 -17.49617850 -14.97569929 5.58908392
H 1.7714 -0.0686 -0.0000 26.84288612 -4.53801235 -0.57546015
H -0.3811 -1.0581 0.0001 -0.38882710 14.79242398 -1.42328767
H 0.1236 1.6054 0.0003 -11.93794275 4.11540677 0.53952747
N 0.8234 -0.3803 0.0000 -0.68577980 -23.15070752 0.55777704
6
-106302.33254047857
C -0.0943 0.5345 -0.0004 -2.04933754 13.91872921 -0.90024821
O -1.2459 -0.0302 -0.0000 -21.37127752 -14.08250794 2.78287552
H 1.7742 -0.0840 -0.0000 27.60815497 -2.80645304 0.25906390
H -0.3682 -1.0303 0.0001 -9.75089424 11.13646506 -1.71774886
H 0.1132 1.6068 0.0003 -7.39539890 8.48625115 -0.46742180
N 0.8190 -0.3778 0.0000 7.97211044 -23.34404099 1.04256113
6
-106304.69735155422
C -0.0942 0.5501 -0.0000 -9.06411249 14.86069446 -1.18105978
O -1.2322 -0.0370 -0.0002 -17.91257807 -12.08848421 -1.05029687
H 1.8234 -0.1724 -0.0001 13.91609620 3.04499207 1.32059741
H -0.3449 -1.0012 0.0000 -9.67141542 1.20651388 -0.65332104
H 0.0130 1.6332 0.0002 1.84722816 9.05408847 -0.79953013
N 0.8331 -0.3537 0.0001 13.27485669 -19.65881643 2.32789845
6
-106301.80537965689
C -0.0921 0.5319 -0.0004 -2.09560329 16.57630162 -2.82065752
O -1.2471 -0.0110 0.0000 -15.42096998 -15.82350220 2.59749884
H 1.7714 -0.0689 -0.0000 29.91518453 -4.40014335 -0.61845473
H -0.3814 -1.0580 0.0001 -5.51195683 18.27875825 -0.64069851
H 0.1239 1.6054 0.0003 -8.77844208 6.12450403 -0.00873547
N 0.8233 -0.3804 0.0000 1.89183829 -20.75604898 1.49129216
6
-106303.05100682566
C -0.0921 0.5319 -0.0004 -2.36412449 10.58831793 0.68181787
O -1.2471 -0.0110 0.0000 -15.52312914 -11.60902170 -3.14989009
H 1.7714 -0.0689 -0.0000 28.07904365 -4.46929806 0.15347854
H -0.3814 -1.0580 0.0001 -5.41689253 16.37477960 0.85012200
H 0.1239 1.6054 0.0003 -9.15119261 5.58939288 0.00775804
N 0.8233 -0.3804 0.0000 2.67681573 -21.23525920 1.40276968
6
-106303.311949926
C -0.0943 0.5345 -0.0004 -11.92923100 10.85873821 -2.60713936
O -1.2459 -0.0302 -0.0000 -11.37880813 -6.00645914 1.05944895
H 1.7742 -0.0840 -0.0000 27.99245932 -3.46067234 -1.06674618
H -0.3682 -1.0303 0.0001 -13.73504716 8.52606920 1.47006235
H 0.1132 1.6068 0.0003 -8.72404371 9.02294083 -0.19381896
N 0.8190 -0.3778 0.0000 12.93120971 -16.34090083 1.33811170
6
-106302.61273473642
C -0.1024 0.5358 -0.0003 -8.01840959 21.92327517 3.12190234
O -1.2414 -0.0573 -0.0001 -18.70405667 3.77837662 -1.00563456
H 1.7876 -0.1156 -0.0001 15.53470035 -3.54827938 0.67697460
H -0.3469 -0.9834 0.0002 -12.30848511 -10.59092789 -1.44521545
H 0.0876 1.6081 0.0003 -9.16989621 8.81174864 -0.86571896
N 0.8137 -0.3687 0.0000 37.04997468 -16.66207293 -3.52441457
6
-106300.9005398426
C -0.0007 0.4610 -0.0000 9.11889306 37.19008212 -1.65705731
O -1.2534 0.0796 0.0000 41.78516522 -123.04121589 -0.75022273
H 1.8804 0.0796 0.0001 16.32918002 7.16331410 0.33122698
H -0.7192 -1.1697 0.0000 -47.23728747 86.48635765 -0.14278576
H 0.1136 1.5344 0.0000 2.93257775 21.59749055 0.20690651
N 0.9774 -0.3659 -0.0001 -22.92850441 -29.39594483 3.16422709
6
-106297.18328143604
C -0.0880 0.5341 -0.0002 14.24452503 -16.04805740 -2.61589935
O -1.2562 0.0740 0.0000 -28.79000481 -36.80550421 0.90480631
H 1.8082 -0.0201 0.0000 -12.61843939 -21.70985064 -0.24083829
H -0.4313 -1.1546 0.0001 6.99422730 43.21294353 0.29765752
H 0.1367 1.5759 0.0001 1.91795101 33.18916826 0.48732759
N 0.8288 -0.3904 -0.0000 20.96687613 -1.83871197 1.16685119
6
-106303.63489024519
C -0.0954 0.5500 -0.0000 -2.63818599 13.17332216 -3.08557577
O -1.2355 -0.0282 -0.0002 -17.38155951 -11.95442652 -0.63750623
H 1.8294 -0.1704 -0.0002 8.34757546 3.02128161 -0.30856001
H -0.3499 -1.0125 0.0001 -4.47026263 4.44106403 -0.06170922
H 0.0136 1.6307 0.0002 0.22632988 11.70847926 0.22674859
N 0.8359 -0.3506 0.0002 18.23819598 -21.30756088 4.89207680
6
-106305.92036690998
C -0.0949 0.5497 -0.0000 -3.56209170 16.83091680 2.89403522
O -1.2331 -0.0369 -0.0002 -17.28085243 -11.02011136 0.00018259
H 1.8244 -0.1731 -0.0001 13.08902097 4.61572162 0.46173884
H -0.3445 -0.9996 0.0000 -9.28484326 -1.55788748 1.52079698
H 0.0125 1.6314 0.0001 0.85163238 10.14541117 -1.21913128
N 0.8338 -0.3525 0.0001 16.18716264 -19.01400583 -3.65754151
6
-106297.17200823095
C -0.0881 0.5340 -0.0002 15.92265563 -17.74374939 -5.74505919
O -1.2562 0.0737 0.0000 -43.17709670 -40.00660532 1.89026404
H 1.8082 -0.0197 0.0000 -18.15447489 -22.24038584 0.84106742
H -0.4310 -1.1547 0.0001 9.46274862 53.07431819 0.01391456
H 0.1363 1.5759 0.0001 1.60019597 32.38393895 -0.72601168
N 0.8289 -0.3902 -0.0000 18.10094184 3.08650639 0.03770993
6
-106291.02461071966
C -0.1070 0.5191 -0.0000 -23.79716144 30.46970854 2.18816664
O -1.3396 0.2304 0.0000 28.04016908 -32.60622383 -1.09752425
H 1.7855 -0.0510 0.0001 36.03067081 -7.60836223 -1.33999639
H -0.3525 -1.2642 0.0000 55.09356668 41.05533894 -0.10912026
H 0.1646 1.5643 0.0000 8.27444796 25.66420912 0.39696892
N 0.8472 -0.3795 -0.0001 -103.64168504 -53.69940657 -1.96122744
6
-106290.72470057466
C -0.0787 0.5060 -0.0001 -6.79448693 53.84564348 1.22151392
O -1.2751 0.1391 0.0000 -30.02550867 -43.53222387 3.70965754
H 1.8286 -0.0055 0.0001 -24.11895259 -23.66703298 0.98552391
H -0.4598 -1.2037 0.0001 21.19834174 39.95423827 0.25633132
H 0.1439 1.5641 0.0001 0.53292398 21.65503843 0.66769379
N 0.8392 -0.3810 -0.0001 32.35073421 -39.12002863 -0.85796965
