3
-47839.21727855826
O 4.4932 0.3807 0.0399 -94.11567493 -6.01949334 -38.42035375
H 5.2849 0.4811 0.4416 97.22496657 18.49174032 59.38260429
H 4.7695 -0.1341 -0.7080 -3.10932602 -12.47227294 -20.96220934
3
-47844.289188594295
O 4.5136 0.3143 -0.0121 -44.45179567 8.46109751 -1.59997759
H 5.4514 0.3085 0.0169 36.22005931 3.16011400 4.15826982
H 4.2558 1.0871 0.5145 8.23177356 -5.71475778 -3.83272141
3
-47843.51165339782
O 4.5114 0.3141 -0.0130 -2.28451043 7.78999126 7.28063449
H 5.4823 0.3092 0.0208 -7.36812949 4.38624745 2.03119633
H 4.2561 1.0914 0.5269 9.65263055 -13.31801749 -9.31185017
3
-47840.48353042367
O 4.5450 0.3903 -0.0215 -26.52636557 5.05434106 -46.55782254
H 5.1385 0.6549 0.6615 8.26425196 -15.17362620 27.59996183
H 4.1051 -0.4660 0.0967 18.26213028 10.11931339 18.95784879
3
-47844.077400479
O 4.5149 0.3100 -0.0092 -52.34393323 -0.40686906 0.08999375
H 5.4436 0.3466 0.0123 47.64530092 4.77796482 2.82977983
H 4.2347 1.1003 0.4765 4.69859741 -4.37114660 -2.91980261
3
-47843.222468010164
O 4.5646 0.3284 -0.0376 17.08197845 27.47201848 19.80974680
H 5.0691 1.0830 0.4160 -32.04998215 -38.94387299 -16.23523671
H 3.8425 0.0755 0.5714 14.96799539 11.47184639 -3.57448364
3
-47837.37977020543
O 4.5177 0.3130 -0.0106 -151.78732172 -1.64185821 -4.23444648
H 5.3923 0.3242 0.0123 149.92332771 3.25912786 4.86857020
H 4.2487 1.0879 0.4951 1.86396506 -1.61730470 -0.63412449
3
-47838.963991594646
O 4.4837 0.3492 0.0608 52.29381020 12.29300235 -58.92707431
H 5.4339 0.2563 0.2907 -16.04362485 -4.63035968 21.49439026
H 4.7623 0.5767 -0.8947 -36.25018336 -7.66259068 37.43269997
3
-47837.91865443292
O 4.5215 0.3228 -0.0160 26.20316000 -9.16265045 -0.89550621
H 5.5260 0.1983 0.1513 -66.22402018 28.50111882 5.86858133
H 4.0729 1.0643 0.4636 40.27344721 -19.33851861 -6.74238898
3
-47839.1133706978
O 4.5519 0.3820 -0.0312 16.66116847 67.95506855 -94.77292587
H 5.0521 0.6631 0.6803 34.49053640 14.82010680 58.59817322
H 4.0770 -0.3381 0.2094 -51.15170291 -82.77516775 36.17470001
3
-47836.84545072752
O 4.5637 0.3337 -0.0376 85.98403681 12.74052634 -110.19124432
H 4.9932 0.9723 0.4839 30.80716162 36.50734007 20.21197114
H 3.9273 0.0993 0.5153 -114.23964316 -49.24792477 89.97930675
3
-47834.45829015655
O 4.4912 0.3400 0.0603 -89.19017451 5.05795020 -16.35577195
H 5.3710 0.2951 0.1984 121.01095320 -22.09867592 60.57536622
H 4.7091 0.6782 -0.7968 -31.82077123 17.04073401 -44.21959893
3
-47830.313736424614
O 4.5067 0.3707 0.0349 -0.90710027 9.08406578 21.88486509
H 5.2783 0.5222 0.7107 -34.45844475 -26.10790676 -75.98565172
H 4.5690 -0.0281 -0.8881 34.83951442 17.02386572 54.10080867
3
-47831.00311288638
O 4.5664 0.3679 -0.0643 -28.30244800 -24.88604464 141.99062246
H 4.9891 0.7661 0.8287 -19.83939748 -18.03671189 -74.50292996
H 3.9007 -0.2261 0.5692 48.14189549 42.92279995 -67.48770553
3
-47830.09827648631
O 4.5875 0.3010 0.0032 -66.25003110 36.24345789 40.35177713
H 4.8928 1.2410 -0.2560 -30.69686478 -45.67636464 23.76076336
H 3.6481 0.3684 0.6114 96.94692761 9.43290329 -64.11254576
