3
-47958.57184923285
O 4.4932000000 0.3807000000 0.0399000000 -80.67956543 -9.44007301 -39.65772247
H 5.2849000000 0.4811000000 0.4416000000 88.94213867 20.51817322 60.05081177
H 4.7695000000 -0.1341000000 -0.7080000000 -8.26258087 -11.07810116 -20.39308357
3
-47962.420722314244
O 4.5136000000 0.3143000000 -0.0121000000 -32.43452835 9.17084694 5.21486855
H 5.4514000000 0.3085000000 0.0169000000 30.76131630 -1.04516685 0.35864788
H 4.2558000000 1.0871000000 0.5145000000 1.67321479 -8.12568092 -5.57351589
3
-47962.56422515944
O 4.5114000000 0.3141000000 -0.0130000000 5.80788898 16.54618454 11.92422009
H 5.4823000000 0.3092000000 0.0208000000 -10.83711720 -0.21360379 -0.56701076
H 4.2561000000 1.0914000000 0.5269000000 5.02922869 -16.33258057 -11.35721016
3
-47960.78888163959
O 4.5450000000 0.3903000000 -0.0215000000 -23.77764511 -2.05395699 -35.44740295
H 5.1385000000 0.6549000000 0.6615000000 7.78167725 -10.38782597 22.06204224
H 4.1051000000 -0.4660000000 0.0967000000 15.99596500 12.44178295 13.38536167
3
-47962.09713973788
O 4.5149000000 0.3100000000 -0.0092000000 -43.88419342 7.81842566 4.84839773
H 5.4436000000 0.3466000000 0.0123000000 43.61276245 -0.31432229 -0.23907062
H 4.2347000000 1.1003000000 0.4765000000 0.27143076 -7.50410318 -4.60932779
3
-47961.07371009757
O 4.5646000000 0.3284000000 -0.0376000000 14.61647701 32.50372696 29.32870865
H 5.0691000000 1.0830000000 0.4160000000 -29.86869431 -40.65477371 -20.73871040
H 3.8425000000 0.0755000000 0.5714000000 15.25221443 8.15104485 -8.58999729
3
-47957.25720053992
O 4.5177000000 0.3130000000 -0.0106000000 -139.04660034 4.72826958 0.64708537
H 5.3923000000 0.3242000000 0.0123000000 141.56272888 -1.43069839 1.56988037
H 4.2487000000 1.0879000000 0.4951000000 -2.51612663 -3.29757166 -2.21696568
3
-47957.29291904102
O 4.4837000000 0.3492000000 0.0608000000 57.47847366 13.09805775 -61.25428772
H 5.4339000000 0.2563000000 0.2907000000 -18.30979347 -5.30192375 24.04823685
H 4.7623000000 0.5767000000 -0.8947000000 -39.16867828 -7.79613447 37.20604706
3
-47957.567994453086
O 4.5215000000 0.3228000000 -0.0160000000 32.24284744 -1.92828333 7.04131222
H 5.5260000000 0.1983000000 0.1513000000 -67.22867584 24.20823097 1.63313556
H 4.0729000000 1.0643000000 0.4636000000 34.98582458 -22.27994537 -8.67444706
3
-47958.30069965157
O 4.5519000000 0.3820000000 -0.0312000000 16.25044441 60.46002197 -80.63597870
H 5.0521000000 0.6631000000 0.6803000000 33.85415268 17.31542206 51.61118317
H 4.0770000000 -0.3381000000 0.2094000000 -50.10459137 -77.77544403 29.02478790
3
-47955.73209871858
O 4.5637000000 0.3337000000 -0.0376000000 79.25606537 15.42632866 -94.49201202
H 4.9932000000 0.9723000000 0.4839000000 32.01108551 34.43661499 14.36243057
H 3.9273000000 0.0993000000 0.5153000000 -111.26715088 -49.86294937 80.12957764
3
-47951.99748777174
O 4.4912000000 0.3400000000 0.0603000000 -77.58287811 7.54053020 -21.31538773
H 5.3710000000 0.2951000000 0.1984000000 113.21027374 -23.40118980 62.73751068
H 4.7091000000 0.6782000000 -0.7968000000 -35.62739563 15.86066055 -41.42212677
3
-47951.01511473494
O 4.5067000000 0.3707000000 0.0349000000 10.99691391 5.47499466 17.51760674
H 5.2783000000 0.5222000000 0.7107000000 -39.46455383 -23.95415497 -73.10648346
H 4.5690000000 -0.0281000000 -0.8881000000 28.46763992 18.47916031 55.58888245
3
-47947.53655917135
O 4.5664000000 0.3679000000 -0.0643000000 -30.44145775 -25.21603775 148.88139343
H 4.9891000000 0.7661000000 0.8287000000 -17.61032867 -17.24446869 -77.54093933
H 3.9007000000 -0.2261000000 0.5692000000 48.05178070 42.46050262 -71.34044647
3
-47949.259987759564
O 4.5875000000 0.3010000000 0.0032000000 -70.08887482 44.44689941 42.85614777
H 4.8928000000 1.2410000000 -0.2560000000 -28.10391808 -49.45201111 21.48816681
H 3.6481000000 0.3684000000 0.6114000000 98.19279480 5.00511312 -64.34431458
